
     RDKit          3D

 22 22  0  0  0  0  0  0  0  0999 V2000
    3.2604   -0.7482   -0.6389 C   0  0  0  0  0  0  0  0  0  0  0  0
    1.9909   -1.2224   -0.0847 C   0  0  0  0  0  0  0  0  0  0  0  0
    1.9692   -2.4399    0.3048 O   0  0  0  0  0  0  0  0  0  0  0  0
    0.7615   -0.4008    0.0215 C   0  0  0  0  0  0  0  0  0  0  0  0
    0.7430    0.9491   -0.1191 C   0  0  0  0  0  0  0  0  0  0  0  0
   -0.4610    1.6077   -0.0451 C   0  0  0  0  0  0  0  0  0  0  0  0
   -0.5458    3.0116   -0.2177 N   0  0  0  0  0  0  0  0  0  0  0  0
   -1.6476    0.9009    0.1752 C   0  0  0  0  0  0  0  0  0  0  0  0
   -1.6109   -0.4783    0.3200 C   0  0  0  0  0  0  0  0  0  0  0  0
   -2.8637   -1.2614    0.5452 C   0  0  0  0  0  0  0  0  0  0  0  0
   -3.7913   -1.0359   -0.4191 F   0  0  0  0  0  0  0  0  0  0  0  0
   -3.3841   -1.0536    1.8212 F   0  0  0  0  0  0  0  0  0  0  0  0
   -2.5423   -2.6177    0.5193 F   0  0  0  0  0  0  0  0  0  0  0  0
   -0.4013   -1.1177    0.2391 C   0  0  0  0  0  0  0  0  0  0  0  0
    3.2546    0.2991   -0.9949 H   0  0  0  0  0  0  0  0  0  0  0  0
    3.6377   -1.4117   -1.4426 H   0  0  0  0  0  0  0  0  0  0  0  0
    4.0430   -0.7778    0.1669 H   0  0  0  0  0  0  0  0  0  0  0  0
    1.7064    1.5140   -0.2678 H   0  0  0  0  0  0  0  0  0  0  0  0
   -1.3638    3.5057   -0.6118 H   0  0  0  0  0  0  0  0  0  0  0  0
    0.2517    3.6137    0.0928 H   0  0  0  0  0  0  0  0  0  0  0  0
   -2.5765    1.3786    0.2371 H   0  0  0  0  0  0  0  0  0  0  0  0
   -0.4301   -2.2150    0.3230 H   0  0  0  0  0  0  0  0  0  0  0  0
  1  2  1  0
  2  3  2  0
  2  4  1  0
  4  5  2  0
  5  6  1  0
  6  7  1  0
  6  8  2  0
  8  9  1  0
  9 10  1  0
 10 11  1  0
 10 12  1  0
 10 13  1  0
  9 14  2  0
 14  4  1  0
  1 15  1  0
  1 16  1  0
  1 17  1  0
  5 18  1  0
  7 19  1  0
  7 20  1  0
  8 21  1  0
 14 22  1  0
M  END
